*SPEF "ieee 1481-1999"
*DESIGN "iiitb_sdm"
*DATE "11:11:11 Fri 11 11, 1111"
*VENDOR "OpenRCX"
*PROGRAM "Parallel Extraction"
*VERSION "1.0"
*DESIGN_FLOW "NAME_SCOPE LOCAL" "PIN_CAP NONE"
*DIVIDER /
*DELIMITER :
*BUS_DELIMITER []
*T_UNIT 1 NS
*C_UNIT 1 PF
*R_UNIT 1 OHM
*L_UNIT 1 HENRY

*NAME_MAP
*1 clock
*2 detector_out
*3 reset
*4 sequence_in
*7 _00_
*8 _01_
*9 _02_
*10 _03_
*11 _04_
*12 _05_
*13 _06_
*14 _07_
*15 _08_
*16 _09_
*17 _10_
*18 _11_
*19 _12_
*20 current_state\[0\]
*21 current_state\[1\]
*22 current_state\[2\]
*23 net1
*24 net2
*25 net3
*26 net4
*27 next_state\[0\]
*28 next_state\[1\]
*29 next_state\[2\]
*30 ANTENNA__14__A
*31 ANTENNA__16__B
*32 ANTENNA__23__A
*33 ANTENNA__24__C
*34 ANTENNA__27__A
*35 ANTENNA__28__A
*36 ANTENNA__29__CLK
*37 ANTENNA__29__D
*38 ANTENNA__30__CLK
*39 ANTENNA__31__CLK
*40 ANTENNA__32__CLK
*41 ANTENNA_input1_A
*42 ANTENNA_input2_A
*43 ANTENNA_input3_A
*44 FILLER_0_1005
*45 FILLER_0_1009
*46 FILLER_0_1021
*47 FILLER_0_1033
*48 FILLER_0_1037
*49 FILLER_0_1049
*50 FILLER_0_1061
*51 FILLER_0_1065
*52 FILLER_0_1077
*53 FILLER_0_1089
*54 FILLER_0_109
*55 FILLER_0_1093
*56 FILLER_0_1105
*57 FILLER_0_1117
*58 FILLER_0_1121
*59 FILLER_0_113
*60 FILLER_0_1133
*61 FILLER_0_1145
*62 FILLER_0_1149
*63 FILLER_0_1161
*64 FILLER_0_1173
*65 FILLER_0_1177
*66 FILLER_0_1189
*67 FILLER_0_1201
*68 FILLER_0_1205
*69 FILLER_0_1217
*70 FILLER_0_1229
*71 FILLER_0_1233
*72 FILLER_0_1245
*73 FILLER_0_125
*74 FILLER_0_1257
*75 FILLER_0_1261
*76 FILLER_0_1273
*77 FILLER_0_1285
*78 FILLER_0_1289
*79 FILLER_0_1301
*80 FILLER_0_1313
*81 FILLER_0_1317
*82 FILLER_0_1329
*83 FILLER_0_1341
*84 FILLER_0_1345
*85 FILLER_0_1357
*86 FILLER_0_1369
*87 FILLER_0_137
*88 FILLER_0_1373
*89 FILLER_0_1385
*90 FILLER_0_1397
*91 FILLER_0_1401
*92 FILLER_0_141
*93 FILLER_0_1413
*94 FILLER_0_1425
*95 FILLER_0_1429
*96 FILLER_0_1441
*97 FILLER_0_1453
*98 FILLER_0_1457
*99 FILLER_0_1469
*100 FILLER_0_1481
*101 FILLER_0_1485
*102 FILLER_0_1497
*103 FILLER_0_15
*104 FILLER_0_1509
*105 FILLER_0_1513
*106 FILLER_0_1525
*107 FILLER_0_153
*108 FILLER_0_1537
*109 FILLER_0_1541
*110 FILLER_0_1553
*111 FILLER_0_1565
*112 FILLER_0_1569
*113 FILLER_0_1581
*114 FILLER_0_1592
*115 FILLER_0_1599
*116 FILLER_0_1611
*117 FILLER_0_1623
*118 FILLER_0_1625
*119 FILLER_0_1637
*120 FILLER_0_1649
*121 FILLER_0_165
*122 FILLER_0_1653
*123 FILLER_0_1665
*124 FILLER_0_1677
*125 FILLER_0_1681
*126 FILLER_0_169
*127 FILLER_0_1693
*128 FILLER_0_1705
*129 FILLER_0_1709
*130 FILLER_0_1721
*131 FILLER_0_1733
*132 FILLER_0_1737
*133 FILLER_0_1749
*134 FILLER_0_1761
*135 FILLER_0_1765
*136 FILLER_0_1777
*137 FILLER_0_1789
*138 FILLER_0_1793
*139 FILLER_0_1805
*140 FILLER_0_181
*141 FILLER_0_1817
*142 FILLER_0_1821
*143 FILLER_0_1833
*144 FILLER_0_1845
*145 FILLER_0_1849
*146 FILLER_0_1861
*147 FILLER_0_1873
*148 FILLER_0_1877
*149 FILLER_0_1889
*150 FILLER_0_1901
*151 FILLER_0_1905
*152 FILLER_0_1917
*153 FILLER_0_193
*154 FILLER_0_197
*155 FILLER_0_209
*156 FILLER_0_221
*157 FILLER_0_225
*158 FILLER_0_237
*159 FILLER_0_249
*160 FILLER_0_253
*161 FILLER_0_265
*162 FILLER_0_27
*163 FILLER_0_277
*164 FILLER_0_281
*165 FILLER_0_29
*166 FILLER_0_293
*167 FILLER_0_305
*168 FILLER_0_309
*169 FILLER_0_321
*170 FILLER_0_333
*171 FILLER_0_337
*172 FILLER_0_349
*173 FILLER_0_361
*174 FILLER_0_365
*175 FILLER_0_377
*176 FILLER_0_389
*177 FILLER_0_393
*178 FILLER_0_405
*179 FILLER_0_41
*180 FILLER_0_417
*181 FILLER_0_421
*182 FILLER_0_433
*183 FILLER_0_445
*184 FILLER_0_449
*185 FILLER_0_461
*186 FILLER_0_473
*187 FILLER_0_477
*188 FILLER_0_489
*189 FILLER_0_501
*190 FILLER_0_505
*191 FILLER_0_517
*192 FILLER_0_529
*193 FILLER_0_53
*194 FILLER_0_533
*195 FILLER_0_545
*196 FILLER_0_557
*197 FILLER_0_561
*198 FILLER_0_57
*199 FILLER_0_573
*200 FILLER_0_585
*201 FILLER_0_589
*202 FILLER_0_601
*203 FILLER_0_613
*204 FILLER_0_617
*205 FILLER_0_629
*206 FILLER_0_641
*207 FILLER_0_645
*208 FILLER_0_657
*209 FILLER_0_669
*210 FILLER_0_673
*211 FILLER_0_685
*212 FILLER_0_69
*213 FILLER_0_697
*214 FILLER_0_701
*215 FILLER_0_713
*216 FILLER_0_725
*217 FILLER_0_729
*218 FILLER_0_741
*219 FILLER_0_753
*220 FILLER_0_757
*221 FILLER_0_769
*222 FILLER_0_781
*223 FILLER_0_785
*224 FILLER_0_797
*225 FILLER_0_809
*226 FILLER_0_81
*227 FILLER_0_813
*228 FILLER_0_825
*229 FILLER_0_837
*230 FILLER_0_841
*231 FILLER_0_85
*232 FILLER_0_853
*233 FILLER_0_865
*234 FILLER_0_869
*235 FILLER_0_881
*236 FILLER_0_893
*237 FILLER_0_897
*238 FILLER_0_909
*239 FILLER_0_921
*240 FILLER_0_925
*241 FILLER_0_937
*242 FILLER_0_949
*243 FILLER_0_953
*244 FILLER_0_965
*245 FILLER_0_97
*246 FILLER_0_977
*247 FILLER_0_981
*248 FILLER_0_993
*249 FILLER_100_1005
*250 FILLER_100_1017
*251 FILLER_100_1029
*252 FILLER_100_1035
*253 FILLER_100_1037
*254 FILLER_100_1049
*255 FILLER_100_1061
*256 FILLER_100_1073
*257 FILLER_100_1085
*258 FILLER_100_109
*259 FILLER_100_1091
*260 FILLER_100_1093
*261 FILLER_100_1105
*262 FILLER_100_1117
*263 FILLER_100_1129
*264 FILLER_100_1141
*265 FILLER_100_1147
*266 FILLER_100_1149
*267 FILLER_100_1161
*268 FILLER_100_1173
*269 FILLER_100_1185
*270 FILLER_100_1197
*271 FILLER_100_1203
*272 FILLER_100_1205
*273 FILLER_100_121
*274 FILLER_100_1217
*275 FILLER_100_1229
*276 FILLER_100_1241
*277 FILLER_100_1253
*278 FILLER_100_1259
*279 FILLER_100_1261
*280 FILLER_100_1273
*281 FILLER_100_1285
*282 FILLER_100_1297
*283 FILLER_100_1309
*284 FILLER_100_1315
*285 FILLER_100_1317
*286 FILLER_100_1329
*287 FILLER_100_133
*288 FILLER_100_1341
*289 FILLER_100_1353
*290 FILLER_100_1365
*291 FILLER_100_1371
*292 FILLER_100_1373
*293 FILLER_100_1385
*294 FILLER_100_139
*295 FILLER_100_1397
*296 FILLER_100_1409
*297 FILLER_100_141
*298 FILLER_100_1421
*299 FILLER_100_1427
*300 FILLER_100_1429
*301 FILLER_100_1441
*302 FILLER_100_1453
*303 FILLER_100_1465
*304 FILLER_100_1477
*305 FILLER_100_1483
*306 FILLER_100_1485
*307 FILLER_100_1497
*308 FILLER_100_15
*309 FILLER_100_1509
*310 FILLER_100_1521
*311 FILLER_100_153
*312 FILLER_100_1533
*313 FILLER_100_1539
*314 FILLER_100_1541
*315 FILLER_100_1553
*316 FILLER_100_1565
*317 FILLER_100_1577
*318 FILLER_100_1589
*319 FILLER_100_1595
*320 FILLER_100_1597
*321 FILLER_100_1609
*322 FILLER_100_1621
*323 FILLER_100_1633
*324 FILLER_100_1645
*325 FILLER_100_165
*326 FILLER_100_1651
*327 FILLER_100_1653
*328 FILLER_100_1665
*329 FILLER_100_1677
*330 FILLER_100_1689
*331 FILLER_100_1701
*332 FILLER_100_1707
*333 FILLER_100_1709
*334 FILLER_100_1721
*335 FILLER_100_1733
*336 FILLER_100_1745
*337 FILLER_100_1757
*338 FILLER_100_1763
*339 FILLER_100_1765
*340 FILLER_100_177
*341 FILLER_100_1777
*342 FILLER_100_1789
*343 FILLER_100_1801
*344 FILLER_100_1813
*345 FILLER_100_1819
*346 FILLER_100_1821
*347 FILLER_100_1833
*348 FILLER_100_1845
*349 FILLER_100_1857
*350 FILLER_100_1869
*351 FILLER_100_1875
*352 FILLER_100_1877
*353 FILLER_100_1889
*354 FILLER_100_189
*355 FILLER_100_1901
*356 FILLER_100_1913
*357 FILLER_100_1925
*358 FILLER_100_195
*359 FILLER_100_197
*360 FILLER_100_209
*361 FILLER_100_221
*362 FILLER_100_233
*363 FILLER_100_245
*364 FILLER_100_251
*365 FILLER_100_253
*366 FILLER_100_265
*367 FILLER_100_27
*368 FILLER_100_277
*369 FILLER_100_289
*370 FILLER_100_29
*371 FILLER_100_3
*372 FILLER_100_301
*373 FILLER_100_307
*374 FILLER_100_309
*375 FILLER_100_321
*376 FILLER_100_333
*377 FILLER_100_345
*378 FILLER_100_357
*379 FILLER_100_363
*380 FILLER_100_365
*381 FILLER_100_377
*382 FILLER_100_389
*383 FILLER_100_401
*384 FILLER_100_41
*385 FILLER_100_413
*386 FILLER_100_419
*387 FILLER_100_421
*388 FILLER_100_433
*389 FILLER_100_445
*390 FILLER_100_457
*391 FILLER_100_469
*392 FILLER_100_475
*393 FILLER_100_477
*394 FILLER_100_489
*395 FILLER_100_501
*396 FILLER_100_513
*397 FILLER_100_525
*398 FILLER_100_53
*399 FILLER_100_531
*400 FILLER_100_533
*401 FILLER_100_545
*402 FILLER_100_557
*403 FILLER_100_569
*404 FILLER_100_581
*405 FILLER_100_587
*406 FILLER_100_589
*407 FILLER_100_601
*408 FILLER_100_613
*409 FILLER_100_625
*410 FILLER_100_637
*411 FILLER_100_643
*412 FILLER_100_645
*413 FILLER_100_65
*414 FILLER_100_657
*415 FILLER_100_669
*416 FILLER_100_681
*417 FILLER_100_693
*418 FILLER_100_699
*419 FILLER_100_701
*420 FILLER_100_713
*421 FILLER_100_725
*422 FILLER_100_737
*423 FILLER_100_749
*424 FILLER_100_755
*425 FILLER_100_757
*426 FILLER_100_769
*427 FILLER_100_77
*428 FILLER_100_781
*429 FILLER_100_793
*430 FILLER_100_805
*431 FILLER_100_811
*432 FILLER_100_813
*433 FILLER_100_825
*434 FILLER_100_83
*435 FILLER_100_837
*436 FILLER_100_849
*437 FILLER_100_85
*438 FILLER_100_861
*439 FILLER_100_867
*440 FILLER_100_869
*441 FILLER_100_881
*442 FILLER_100_893
*443 FILLER_100_905
*444 FILLER_100_917
*445 FILLER_100_923
*446 FILLER_100_925
*447 FILLER_100_937
*448 FILLER_100_949
*449 FILLER_100_961
*450 FILLER_100_97
*451 FILLER_100_973
*452 FILLER_100_979
*453 FILLER_100_981
*454 FILLER_100_993
*455 FILLER_101_1001
*456 FILLER_101_1007
*457 FILLER_101_1009
*458 FILLER_101_1021
*459 FILLER_101_1033
*460 FILLER_101_1045
*461 FILLER_101_105
*462 FILLER_101_1057
*463 FILLER_101_1063
*464 FILLER_101_1065
*465 FILLER_101_1077
*466 FILLER_101_1089
*467 FILLER_101_1101
*468 FILLER_101_111
*469 FILLER_101_1113
*470 FILLER_101_1119
*471 FILLER_101_1121
*472 FILLER_101_113
*473 FILLER_101_1133
*474 FILLER_101_1145
*475 FILLER_101_1157
*476 FILLER_101_1169
*477 FILLER_101_1175
*478 FILLER_101_1177
*479 FILLER_101_1189
*480 FILLER_101_1201
*481 FILLER_101_1213
*482 FILLER_101_1225
*483 FILLER_101_1231
*484 FILLER_101_1233
*485 FILLER_101_1245
*486 FILLER_101_125
*487 FILLER_101_1257
*488 FILLER_101_1269
*489 FILLER_101_1281
*490 FILLER_101_1287
*491 FILLER_101_1289
*492 FILLER_101_1301
*493 FILLER_101_1313
*494 FILLER_101_1325
*495 FILLER_101_1337
*496 FILLER_101_1343
*497 FILLER_101_1345
*498 FILLER_101_1357
*499 FILLER_101_1369
*500 FILLER_101_137
*501 FILLER_101_1381
*502 FILLER_101_1393
*503 FILLER_101_1399
*504 FILLER_101_1401
*505 FILLER_101_1413
*506 FILLER_101_1425
*507 FILLER_101_1437
*508 FILLER_101_1449
*509 FILLER_101_1455
*510 FILLER_101_1457
*511 FILLER_101_1469
*512 FILLER_101_1481
*513 FILLER_101_149
*514 FILLER_101_1493
*515 FILLER_101_15
*516 FILLER_101_1505
*517 FILLER_101_1511
*518 FILLER_101_1513
*519 FILLER_101_1525
*520 FILLER_101_1537
*521 FILLER_101_1549
*522 FILLER_101_1561
*523 FILLER_101_1567
*524 FILLER_101_1569
*525 FILLER_101_1581
*526 FILLER_101_1593
*527 FILLER_101_1605
*528 FILLER_101_161
*529 FILLER_101_1617
*530 FILLER_101_1623
*531 FILLER_101_1625
*532 FILLER_101_1637
*533 FILLER_101_1649
*534 FILLER_101_1661
*535 FILLER_101_167
*536 FILLER_101_1673
*537 FILLER_101_1679
*538 FILLER_101_1681
*539 FILLER_101_169
*540 FILLER_101_1693
*541 FILLER_101_1705
*542 FILLER_101_1717
*543 FILLER_101_1729
*544 FILLER_101_1735
*545 FILLER_101_1737
*546 FILLER_101_1749
*547 FILLER_101_1761
*548 FILLER_101_1773
*549 FILLER_101_1785
*550 FILLER_101_1791
*551 FILLER_101_1793
*552 FILLER_101_1805
*553 FILLER_101_181
*554 FILLER_101_1817
*555 FILLER_101_1829
*556 FILLER_101_1841
*557 FILLER_101_1847
*558 FILLER_101_1849
*559 FILLER_101_1861
*560 FILLER_101_1873
*561 FILLER_101_1885
*562 FILLER_101_1897
*563 FILLER_101_1903
*564 FILLER_101_1905
*565 FILLER_101_1917
*566 FILLER_101_193
*567 FILLER_101_205
*568 FILLER_101_217
*569 FILLER_101_223
*570 FILLER_101_225
*571 FILLER_101_237
*572 FILLER_101_249
*573 FILLER_101_261
*574 FILLER_101_27
*575 FILLER_101_273
*576 FILLER_101_279
*577 FILLER_101_281
*578 FILLER_101_293
*579 FILLER_101_3
*580 FILLER_101_305
*581 FILLER_101_317
*582 FILLER_101_329
*583 FILLER_101_335
*584 FILLER_101_337
*585 FILLER_101_349
*586 FILLER_101_361
*587 FILLER_101_373
*588 FILLER_101_385
*589 FILLER_101_39
*590 FILLER_101_391
*591 FILLER_101_393
*592 FILLER_101_405
*593 FILLER_101_417
*594 FILLER_101_429
*595 FILLER_101_441
*596 FILLER_101_447
*597 FILLER_101_449
*598 FILLER_101_461
*599 FILLER_101_473
*600 FILLER_101_485
*601 FILLER_101_497
*602 FILLER_101_503
*603 FILLER_101_505
*604 FILLER_101_51
*605 FILLER_101_517
*606 FILLER_101_529
*607 FILLER_101_541
*608 FILLER_101_55
*609 FILLER_101_553
*610 FILLER_101_559
*611 FILLER_101_561
*612 FILLER_101_57
*613 FILLER_101_573
*614 FILLER_101_585
*615 FILLER_101_597
*616 FILLER_101_609
*617 FILLER_101_615
*618 FILLER_101_617
*619 FILLER_101_629
*620 FILLER_101_641
*621 FILLER_101_653
*622 FILLER_101_665
*623 FILLER_101_671
*624 FILLER_101_673
*625 FILLER_101_685
*626 FILLER_101_69
*627 FILLER_101_697
*628 FILLER_101_709
*629 FILLER_101_721
*630 FILLER_101_727
*631 FILLER_101_729
*632 FILLER_101_741
*633 FILLER_101_753
*634 FILLER_101_765
*635 FILLER_101_777
*636 FILLER_101_783
*637 FILLER_101_785
*638 FILLER_101_797
*639 FILLER_101_809
*640 FILLER_101_81
*641 FILLER_101_821
*642 FILLER_101_833
*643 FILLER_101_839
*644 FILLER_101_841
*645 FILLER_101_853
*646 FILLER_101_865
*647 FILLER_101_877
*648 FILLER_101_889
*649 FILLER_101_895
*650 FILLER_101_897
*651 FILLER_101_909
*652 FILLER_101_921
*653 FILLER_101_93
*654 FILLER_101_933
*655 FILLER_101_945
*656 FILLER_101_951
*657 FILLER_101_953
*658 FILLER_101_965
*659 FILLER_101_977
*660 FILLER_101_989
*661 FILLER_102_1005
*662 FILLER_102_1017
*663 FILLER_102_1029
*664 FILLER_102_1035
*665 FILLER_102_1037
*666 FILLER_102_1049
*667 FILLER_102_1061
*668 FILLER_102_1073
*669 FILLER_102_1085
*670 FILLER_102_109
*671 FILLER_102_1091
*672 FILLER_102_1093
*673 FILLER_102_1105
*674 FILLER_102_1117
*675 FILLER_102_1129
*676 FILLER_102_1141
*677 FILLER_102_1147
*678 FILLER_102_1149
*679 FILLER_102_1161
*680 FILLER_102_1173
*681 FILLER_102_1185
*682 FILLER_102_1197
*683 FILLER_102_1203
*684 FILLER_102_1205
*685 FILLER_102_121
*686 FILLER_102_1217
*687 FILLER_102_1229
*688 FILLER_102_1241
*689 FILLER_102_1253
*690 FILLER_102_1259
*691 FILLER_102_1261
*692 FILLER_102_1273
*693 FILLER_102_1285
*694 FILLER_102_1297
*695 FILLER_102_1309
*696 FILLER_102_1315
*697 FILLER_102_1317
*698 FILLER_102_1329
*699 FILLER_102_133
*700 FILLER_102_1341
*701 FILLER_102_1353
*702 FILLER_102_1365
*703 FILLER_102_1371
*704 FILLER_102_1373
*705 FILLER_102_1385
*706 FILLER_102_139
*707 FILLER_102_1397
*708 FILLER_102_1409
*709 FILLER_102_141
*710 FILLER_102_1421
*711 FILLER_102_1427
*712 FILLER_102_1429
*713 FILLER_102_1441
*714 FILLER_102_1453
*715 FILLER_102_1465
*716 FILLER_102_1477
*717 FILLER_102_1483
*718 FILLER_102_1485
*719 FILLER_102_1497
*720 FILLER_102_15
*721 FILLER_102_1509
*722 FILLER_102_1521
*723 FILLER_102_153
*724 FILLER_102_1533
*725 FILLER_102_1539
*726 FILLER_102_1541
*727 FILLER_102_1553
*728 FILLER_102_1565
*729 FILLER_102_1577
*730 FILLER_102_1589
*731 FILLER_102_1595
*732 FILLER_102_1597
*733 FILLER_102_1609
*734 FILLER_102_1621
*735 FILLER_102_1633
*736 FILLER_102_1645
*737 FILLER_102_165
*738 FILLER_102_1651
*739 FILLER_102_1653
*740 FILLER_102_1665
*741 FILLER_102_1677
*742 FILLER_102_1689
*743 FILLER_102_1701
*744 FILLER_102_1707
*745 FILLER_102_1709
*746 FILLER_102_1721
*747 FILLER_102_1733
*748 FILLER_102_1745
*749 FILLER_102_1757
*750 FILLER_102_1763
*751 FILLER_102_1765
*752 FILLER_102_177
*753 FILLER_102_1777
*754 FILLER_102_1789
*755 FILLER_102_1801
*756 FILLER_102_1813
*757 FILLER_102_1819
*758 FILLER_102_1821
*759 FILLER_102_1833
*760 FILLER_102_1845
*761 FILLER_102_1857
*762 FILLER_102_1869
*763 FILLER_102_1875
*764 FILLER_102_1877
*765 FILLER_102_1889
*766 FILLER_102_189
*767 FILLER_102_1901
*768 FILLER_102_1913
*769 FILLER_102_1925
*770 FILLER_102_195
*771 FILLER_102_197
*772 FILLER_102_209
*773 FILLER_102_221
*774 FILLER_102_233
*775 FILLER_102_245
*776 FILLER_102_251
*777 FILLER_102_253
*778 FILLER_102_265
*779 FILLER_102_27
*780 FILLER_102_277
*781 FILLER_102_289
*782 FILLER_102_29
*783 FILLER_102_3
*784 FILLER_102_301
*785 FILLER_102_307
*786 FILLER_102_309
*787 FILLER_102_321
*788 FILLER_102_333
*789 FILLER_102_345
*790 FILLER_102_357
*791 FILLER_102_363
*792 FILLER_102_365
*793 FILLER_102_377
*794 FILLER_102_389
*795 FILLER_102_401
*796 FILLER_102_41
*797 FILLER_102_413
*798 FILLER_102_419
*799 FILLER_102_421
*800 FILLER_102_433
*801 FILLER_102_445
*802 FILLER_102_457
*803 FILLER_102_469
*804 FILLER_102_475
*805 FILLER_102_477
*806 FILLER_102_489
*807 FILLER_102_501
*808 FILLER_102_513
*809 FILLER_102_525
*810 FILLER_102_53
*811 FILLER_102_531
*812 FILLER_102_533
*813 FILLER_102_545
*814 FILLER_102_557
*815 FILLER_102_569
*816 FILLER_102_581
*817 FILLER_102_587
*818 FILLER_102_589
*819 FILLER_102_601
*820 FILLER_102_613
*821 FILLER_102_625
*822 FILLER_102_637
*823 FILLER_102_643
*824 FILLER_102_645
*825 FILLER_102_65
*826 FILLER_102_657
*827 FILLER_102_669
*828 FILLER_102_681
*829 FILLER_102_693
*830 FILLER_102_699
*831 FILLER_102_701
*832 FILLER_102_713
*833 FILLER_102_725
*834 FILLER_102_737
*835 FILLER_102_749
*836 FILLER_102_755
*837 FILLER_102_757
*838 FILLER_102_769
*839 FILLER_102_77
*840 FILLER_102_781
*841 FILLER_102_793
*842 FILLER_102_805
*843 FILLER_102_811
*844 FILLER_102_813
*845 FILLER_102_825
*846 FILLER_102_83
*847 FILLER_102_837
*848 FILLER_102_849
*849 FILLER_102_85
*850 FILLER_102_861
*851 FILLER_102_867
*852 FILLER_102_869
*853 FILLER_102_881
*854 FILLER_102_893
*855 FILLER_102_905
*856 FILLER_102_917
*857 FILLER_102_923
*858 FILLER_102_925
*859 FILLER_102_937
*860 FILLER_102_949
*861 FILLER_102_961
*862 FILLER_102_97
*863 FILLER_102_973
*864 FILLER_102_979
*865 FILLER_102_981
*866 FILLER_102_993
*867 FILLER_103_1001
*868 FILLER_103_1007
*869 FILLER_103_1009
*870 FILLER_103_1021
*871 FILLER_103_1033
*872 FILLER_103_1045
*873 FILLER_103_105
*874 FILLER_103_1057
*875 FILLER_103_1063
*876 FILLER_103_1065
*877 FILLER_103_1077
*878 FILLER_103_1089
*879 FILLER_103_1101
*880 FILLER_103_111
*881 FILLER_103_1113
*882 FILLER_103_1119
*883 FILLER_103_1121
*884 FILLER_103_113
*885 FILLER_103_1133
*886 FILLER_103_1145
*887 FILLER_103_1157
*888 FILLER_103_1169
*889 FILLER_103_1175
*890 FILLER_103_1177
*891 FILLER_103_1189
*892 FILLER_103_1201
*893 FILLER_103_1213
*894 FILLER_103_1225
*895 FILLER_103_1231
*896 FILLER_103_1233
*897 FILLER_103_1245
*898 FILLER_103_125
*899 FILLER_103_1257
*900 FILLER_103_1269
*901 FILLER_103_1281
*902 FILLER_103_1287
*903 FILLER_103_1289
*904 FILLER_103_1301
*905 FILLER_103_1313
*906 FILLER_103_1325
*907 FILLER_103_1337
*908 FILLER_103_1343
*909 FILLER_103_1345
*910 FILLER_103_1357
*911 FILLER_103_1369
*912 FILLER_103_137
*913 FILLER_103_1381
*914 FILLER_103_1393
*915 FILLER_103_1399
*916 FILLER_103_1401
*917 FILLER_103_1413
*918 FILLER_103_1425
*919 FILLER_103_1437
*920 FILLER_103_1449
*921 FILLER_103_1455
*922 FILLER_103_1457
*923 FILLER_103_1469
*924 FILLER_103_1481
*925 FILLER_103_149
*926 FILLER_103_1493
*927 FILLER_103_15
*928 FILLER_103_1505
*929 FILLER_103_1511
*930 FILLER_103_1513
*931 FILLER_103_1525
*932 FILLER_103_1537
*933 FILLER_103_1549
*934 FILLER_103_1561
*935 FILLER_103_1567
*936 FILLER_103_1569
*937 FILLER_103_1581
*938 FILLER_103_1593
*939 FILLER_103_1605
*940 FILLER_103_161
*941 FILLER_103_1617
*942 FILLER_103_1623
*943 FILLER_103_1625
*944 FILLER_103_1637
*945 FILLER_103_1649
*946 FILLER_103_1661
*947 FILLER_103_167
*948 FILLER_103_1673
*949 FILLER_103_1679
*950 FILLER_103_1681
*951 FILLER_103_169
*952 FILLER_103_1693
*953 FILLER_103_1705
*954 FILLER_103_1717
*955 FILLER_103_1729
*956 FILLER_103_1735
*957 FILLER_103_1737
*958 FILLER_103_1749
*959 FILLER_103_1761
*960 FILLER_103_1773
*961 FILLER_103_1785
*962 FILLER_103_1791
*963 FILLER_103_1793
*964 FILLER_103_1805
*965 FILLER_103_181
*966 FILLER_103_1817
*967 FILLER_103_1829
*968 FILLER_103_1841
*969 FILLER_103_1847
*970 FILLER_103_1849
*971 FILLER_103_1861
*972 FILLER_103_1873
*973 FILLER_103_1885
*974 FILLER_103_1897
*975 FILLER_103_1903
*976 FILLER_103_1905
*977 FILLER_103_1917
*978 FILLER_103_193
*979 FILLER_103_205
*980 FILLER_103_217
*981 FILLER_103_223
*982 FILLER_103_225
*983 FILLER_103_237
*984 FILLER_103_249
*985 FILLER_103_261
*986 FILLER_103_27
*987 FILLER_103_273
*988 FILLER_103_279
*989 FILLER_103_281
*990 FILLER_103_293
*991 FILLER_103_3
*992 FILLER_103_305
*993 FILLER_103_317
*994 FILLER_103_329
*995 FILLER_103_335
*996 FILLER_103_337
*997 FILLER_103_349
*998 FILLER_103_361
*999 FILLER_103_373
*1000 FILLER_103_385
*1001 FILLER_103_39
*1002 FILLER_103_391
*1003 FILLER_103_393
*1004 FILLER_103_405
*1005 FILLER_103_417
*1006 FILLER_103_429
*1007 FILLER_103_441
*1008 FILLER_103_447
*1009 FILLER_103_449
*1010 FILLER_103_461
*1011 FILLER_103_473
*1012 FILLER_103_485
*1013 FILLER_103_497
*1014 FILLER_103_503
*1015 FILLER_103_505
*1016 FILLER_103_51
*1017 FILLER_103_517
*1018 FILLER_103_529
*1019 FILLER_103_541
*1020 FILLER_103_55
*1021 FILLER_103_553
*1022 FILLER_103_559
*1023 FILLER_103_561
*1024 FILLER_103_57
*1025 FILLER_103_573
*1026 FILLER_103_585
*1027 FILLER_103_597
*1028 FILLER_103_609
*1029 FILLER_103_615
*1030 FILLER_103_617
*1031 FILLER_103_629
*1032 FILLER_103_641
*1033 FILLER_103_653
*1034 FILLER_103_665
*1035 FILLER_103_671
*1036 FILLER_103_673
*1037 FILLER_103_685
*1038 FILLER_103_69
*1039 FILLER_103_697
*1040 FILLER_103_709
*1041 FILLER_103_721
*1042 FILLER_103_727
*1043 FILLER_103_729
*1044 FILLER_103_741
*1045 FILLER_103_753
*1046 FILLER_103_765
*1047 FILLER_103_777
*1048 FILLER_103_783
*1049 FILLER_103_785
*1050 FILLER_103_797
*1051 FILLER_103_809
*1052 FILLER_103_81
*1053 FILLER_103_821
*1054 FILLER_103_833
*1055 FILLER_103_839
*1056 FILLER_103_841
*1057 FILLER_103_853
*1058 FILLER_103_865
*1059 FILLER_103_877
*1060 FILLER_103_889
*1061 FILLER_103_895
*1062 FILLER_103_897
*1063 FILLER_103_909
*1064 FILLER_103_921
*1065 FILLER_103_93
*1066 FILLER_103_933
*1067 FILLER_103_945
*1068 FILLER_103_951
*1069 FILLER_103_953
*1070 FILLER_103_965
*1071 FILLER_103_977
*1072 FILLER_103_989
*1073 FILLER_104_1005
*1074 FILLER_104_1017
*1075 FILLER_104_1029
*1076 FILLER_104_1035
*1077 FILLER_104_1037
*1078 FILLER_104_1049
*1079 FILLER_104_1061
*1080 FILLER_104_1073
*1081 FILLER_104_1085
*1082 FILLER_104_109
*1083 FILLER_104_1091
*1084 FILLER_104_1093
*1085 FILLER_104_1105
*1086 FILLER_104_1117
*1087 FILLER_104_1129
*1088 FILLER_104_1141
*1089 FILLER_104_1147
*1090 FILLER_104_1149
*1091 FILLER_104_1161
*1092 FILLER_104_1173
*1093 FILLER_104_1185
*1094 FILLER_104_1197
*1095 FILLER_104_1203
*1096 FILLER_104_1205
*1097 FILLER_104_121
*1098 FILLER_104_1217
*1099 FILLER_104_1229
*1100 FILLER_104_1241
*1101 FILLER_104_1253
*1102 FILLER_104_1259
*1103 FILLER_104_1261
*1104 FILLER_104_1273
*1105 FILLER_104_1285
*1106 FILLER_104_1297
*1107 FILLER_104_1309
*1108 FILLER_104_1315
*1109 FILLER_104_1317
*1110 FILLER_104_1329
*1111 FILLER_104_133
*1112 FILLER_104_1341
*1113 FILLER_104_1353
*1114 FILLER_104_1365
*1115 FILLER_104_1371
*1116 FILLER_104_1373
*1117 FILLER_104_1385
*1118 FILLER_104_139
*1119 FILLER_104_1397
*1120 FILLER_104_1409
*1121 FILLER_104_141
*1122 FILLER_104_1421
*1123 FILLER_104_1427
*1124 FILLER_104_1429
*1125 FILLER_104_1441
*1126 FILLER_104_1453
*1127 FILLER_104_1465
*1128 FILLER_104_1477
*1129 FILLER_104_1483
*1130 FILLER_104_1485
*1131 FILLER_104_1497
*1132 FILLER_104_15
*1133 FILLER_104_1509
*1134 FILLER_104_1521
*1135 FILLER_104_153
*1136 FILLER_104_1533
*1137 FILLER_104_1539
*1138 FILLER_104_1541
*1139 FILLER_104_1553
*1140 FILLER_104_1565
*1141 FILLER_104_1577
*1142 FILLER_104_1589
*1143 FILLER_104_1595
*1144 FILLER_104_1597
*1145 FILLER_104_1609
*1146 FILLER_104_1621
*1147 FILLER_104_1633
*1148 FILLER_104_1645
*1149 FILLER_104_165
*1150 FILLER_104_1651
*1151 FILLER_104_1653
*1152 FILLER_104_1665
*1153 FILLER_104_1677
*1154 FILLER_104_1689
*1155 FILLER_104_1701
*1156 FILLER_104_1707
*1157 FILLER_104_1709
*1158 FILLER_104_1721
*1159 FILLER_104_1733
*1160 FILLER_104_1745
*1161 FILLER_104_1757
*1162 FILLER_104_1763
*1163 FILLER_104_1765
*1164 FILLER_104_177
*1165 FILLER_104_1777
*1166 FILLER_104_1789
*1167 FILLER_104_1801
*1168 FILLER_104_1813
*1169 FILLER_104_1819
*1170 FILLER_104_1821
*1171 FILLER_104_1833
*1172 FILLER_104_1845
*1173 FILLER_104_1857
*1174 FILLER_104_1869
*1175 FILLER_104_1875
*1176 FILLER_104_1877
*1177 FILLER_104_1889
*1178 FILLER_104_189
*1179 FILLER_104_1901
*1180 FILLER_104_1913
*1181 FILLER_104_1925
*1182 FILLER_104_195
*1183 FILLER_104_197
*1184 FILLER_104_209
*1185 FILLER_104_221
*1186 FILLER_104_233
*1187 FILLER_104_245
*1188 FILLER_104_251
*1189 FILLER_104_253
*1190 FILLER_104_265
*1191 FILLER_104_27
*1192 FILLER_104_277
*1193 FILLER_104_289
*1194 FILLER_104_29
*1195 FILLER_104_3
*1196 FILLER_104_301
*1197 FILLER_104_307
*1198 FILLER_104_309
*1199 FILLER_104_321
*1200 FILLER_104_333
*1201 FILLER_104_345
*1202 FILLER_104_357
*1203 FILLER_104_363
*1204 FILLER_104_365
*1205 FILLER_104_377
*1206 FILLER_104_389
*1207 FILLER_104_401
*1208 FILLER_104_41
*1209 FILLER_104_413
*1210 FILLER_104_419
*1211 FILLER_104_421
*1212 FILLER_104_433
*1213 FILLER_104_445
*1214 FILLER_104_457
*1215 FILLER_104_469
*1216 FILLER_104_475
*1217 FILLER_104_477
*1218 FILLER_104_489
*1219 FILLER_104_501
*1220 FILLER_104_513
*1221 FILLER_104_525
*1222 FILLER_104_53
*1223 FILLER_104_531
*1224 FILLER_104_533
*1225 FILLER_104_545
*1226 FILLER_104_557
*1227 FILLER_104_569
*1228 FILLER_104_581
*1229 FILLER_104_587
*1230 FILLER_104_589
*1231 FILLER_104_601
*1232 FILLER_104_613
*1233 FILLER_104_625
*1234 FILLER_104_637
*1235 FILLER_104_643
*1236 FILLER_104_645
*1237 FILLER_104_65
*1238 FILLER_104_657
*1239 FILLER_104_669
*1240 FILLER_104_681
*1241 FILLER_104_693
*1242 FILLER_104_699
*1243 FILLER_104_701
*1244 FILLER_104_713
*1245 FILLER_104_725
*1246 FILLER_104_737
*1247 FILLER_104_749
*1248 FILLER_104_755
*1249 FILLER_104_757
*1250 FILLER_104_769
*1251 FILLER_104_77
*1252 FILLER_104_781
*1253 FILLER_104_793
*1254 FILLER_104_805
*1255 FILLER_104_811
*1256 FILLER_104_813
*1257 FILLER_104_825
*1258 FILLER_104_83
*1259 FILLER_104_837
*1260 FILLER_104_849
*1261 FILLER_104_85
*1262 FILLER_104_861
*1263 FILLER_104_867
*1264 FILLER_104_869
*1265 FILLER_104_881
*1266 FILLER_104_893
*1267 FILLER_104_905
*1268 FILLER_104_917
*1269 FILLER_104_923
*1270 FILLER_104_925
*1271 FILLER_104_937
*1272 FILLER_104_949
*1273 FILLER_104_961
*1274 FILLER_104_97
*1275 FILLER_104_973
*1276 FILLER_104_979
*1277 FILLER_104_981
*1278 FILLER_104_993
*1279 FILLER_105_1001
*1280 FILLER_105_1007
*1281 FILLER_105_1009
*1282 FILLER_105_1021
*1283 FILLER_105_1033
*1284 FILLER_105_1045
*1285 FILLER_105_105
*1286 FILLER_105_1057
*1287 FILLER_105_1063
*1288 FILLER_105_1065
*1289 FILLER_105_1077
*1290 FILLER_105_1089
*1291 FILLER_105_1101
*1292 FILLER_105_111
*1293 FILLER_105_1113
*1294 FILLER_105_1119
*1295 FILLER_105_1121
*1296 FILLER_105_113
*1297 FILLER_105_1133
*1298 FILLER_105_1145
*1299 FILLER_105_1157
*1300 FILLER_105_1169
*1301 FILLER_105_1175
*1302 FILLER_105_1177
*1303 FILLER_105_1189
*1304 FILLER_105_1201
*1305 FILLER_105_1213
*1306 FILLER_105_1225
*1307 FILLER_105_1231
*1308 FILLER_105_1233
*1309 FILLER_105_1245
*1310 FILLER_105_125
*1311 FILLER_105_1257
*1312 FILLER_105_1269
*1313 FILLER_105_1281
*1314 FILLER_105_1287
*1315 FILLER_105_1289
*1316 FILLER_105_1301
*1317 FILLER_105_1313
*1318 FILLER_105_1325
*1319 FILLER_105_1337
*1320 FILLER_105_1343
*1321 FILLER_105_1345
*1322 FILLER_105_1357
*1323 FILLER_105_1369
*1324 FILLER_105_137
*1325 FILLER_105_1381
*1326 FILLER_105_1393
*1327 FILLER_105_1399
*1328 FILLER_105_1401
*1329 FILLER_105_1413
*1330 FILLER_105_1425
*1331 FILLER_105_1437
*1332 FILLER_105_1449
*1333 FILLER_105_1455
*1334 FILLER_105_1457
*1335 FILLER_105_1469
*1336 FILLER_105_1481
*1337 FILLER_105_149
*1338 FILLER_105_1493
*1339 FILLER_105_15
*1340 FILLER_105_1505
*1341 FILLER_105_1511
*1342 FILLER_105_1513
*1343 FILLER_105_1525
*1344 FILLER_105_1537
*1345 FILLER_105_1549
*1346 FILLER_105_1561
*1347 FILLER_105_1567
*1348 FILLER_105_1569
*1349 FILLER_105_1581
*1350 FILLER_105_1593
*1351 FILLER_105_1605
*1352 FILLER_105_161
*1353 FILLER_105_1617
*1354 FILLER_105_1623
*1355 FILLER_105_1625
*1356 FILLER_105_1637
*1357 FILLER_105_1649
*1358 FILLER_105_1661
*1359 FILLER_105_167
*1360 FILLER_105_1673
*1361 FILLER_105_1679
*1362 FILLER_105_1681
*1363 FILLER_105_169
*1364 FILLER_105_1693
*1365 FILLER_105_1705
*1366 FILLER_105_1717
*1367 FILLER_105_1729
*1368 FILLER_105_1735
*1369 FILLER_105_1737
*1370 FILLER_105_1749
*1371 FILLER_105_1761
*1372 FILLER_105_1773
*1373 FILLER_105_1785
*1374 FILLER_105_1791
*1375 FILLER_105_1793
*1376 FILLER_105_1805
*1377 FILLER_105_181
*1378 FILLER_105_1817
*1379 FILLER_105_1829
*1380 FILLER_105_1841
*1381 FILLER_105_1847
*1382 FILLER_105_1849
*1383 FILLER_105_1861
*1384 FILLER_105_1873
*1385 FILLER_105_1885
*1386 FILLER_105_1897
*1387 FILLER_105_1903
*1388 FILLER_105_1905
*1389 FILLER_105_1917
*1390 FILLER_105_193
*1391 FILLER_105_205
*1392 FILLER_105_217
*1393 FILLER_105_223
*1394 FILLER_105_225
*1395 FILLER_105_237
*1396 FILLER_105_249
*1397 FILLER_105_261
*1398 FILLER_105_27
*1399 FILLER_105_273
*1400 FILLER_105_279
*1401 FILLER_105_281
*1402 FILLER_105_293
*1403 FILLER_105_3
*1404 FILLER_105_305
*1405 FILLER_105_317
*1406 FILLER_105_329
*1407 FILLER_105_335
*1408 FILLER_105_337
*1409 FILLER_105_349
*1410 FILLER_105_361
*1411 FILLER_105_373
*1412 FILLER_105_385
*1413 FILLER_105_39
*1414 FILLER_105_391
*1415 FILLER_105_393
*1416 FILLER_105_405
*1417 FILLER_105_417
*1418 FILLER_105_429
*1419 FILLER_105_441
*1420 FILLER_105_447
*1421 FILLER_105_449
*1422 FILLER_105_461
*1423 FILLER_105_473
*1424 FILLER_105_485
*1425 FILLER_105_497
*1426 FILLER_105_503
*1427 FILLER_105_505
*1428 FILLER_105_51
*1429 FILLER_105_517
*1430 FILLER_105_529
*1431 FILLER_105_541
*1432 FILLER_105_55
*1433 FILLER_105_553
*1434 FILLER_105_559
*1435 FILLER_105_561
*1436 FILLER_105_57
*1437 FILLER_105_573
*1438 FILLER_105_585
*1439 FILLER_105_597
*1440 FILLER_105_609
*1441 FILLER_105_615
*1442 FILLER_105_617
*1443 FILLER_105_629
*1444 FILLER_105_641
*1445 FILLER_105_653
*1446 FILLER_105_665
*1447 FILLER_105_671
*1448 FILLER_105_673
*1449 FILLER_105_685
*1450 FILLER_105_69
*1451 FILLER_105_697
*1452 FILLER_105_709
*1453 FILLER_105_721
*1454 FILLER_105_727
*1455 FILLER_105_729
*1456 FILLER_105_741
*1457 FILLER_105_753
*1458 FILLER_105_765
*1459 FILLER_105_777
*1460 FILLER_105_783
*1461 FILLER_105_785
*1462 FILLER_105_797
*1463 FILLER_105_809
*1464 FILLER_105_81
*1465 FILLER_105_821
*1466 FILLER_105_833